Circuit: * C:\Users\leo\OneDrive - HTL Anichstrasse\02_Scripts\HWE\Quarto\HWE-Skript\GET\Grafiken\Draft1.asc

Direct Newton iteration for .op point succeeded.

Date: Sun Jan 19 12:53:35 2025
Total elapsed time: 0.095 seconds.

tnom = 27
temp = 27
method = trap
totiter = 3
traniter = 0
tranpoints = 0
accept = 0
rejected = 0
matrix size = 4
fillins = 0
solver = Normal
Avg thread counts: 8.0/0.0/8.0/1.9
Matrix Compiler1:       7 opcodes
Matrix Compiler2: 242 bytes object code size
