Circuit: * C:\Users\leo\OneDrive - HTL Anichstrasse\02_Scripts\HWE\Quarto\HWE-Skript\GET\Grafiken\KSA_5.asc

Direct Newton iteration for .op point succeeded.

Date: Fri Feb 23 21:16:49 2024
Total elapsed time: 0.075 seconds.

tnom = 27
temp = 27
method = trap
totiter = 3
traniter = 0
tranpoints = 0
accept = 0
rejected = 0
matrix size = 6
fillins = 1
solver = Normal
Avg thread counts: 8.0/0.0/8.0/8.0
Matrix Compiler1: 280 bytes object code size
Matrix Compiler2: 428 bytes object code size
